data/casedata/data_init/aus-data/LF_Case04_R4_S.m
function mpc = LF_Case04_R4_S
%LF_CASE04_R4_S
%   PSS(R)E 29 RAW created by rawd29  MON, FEB 17 2014  18:49
%   LF_CASE04_R3_S   14-GEN. SIMPLIFIED MODEL OF THE 4-STATE
%   SYSTEM: LIGHTLD AREA4<-AREA2->AREA3->AREA5 200-200-200MW
%
%   Converted by MATPOWER 7.0b1 using PSSE2MPC on 08-Jun-2019
%   from 'LF_Case04_R4_S.raw' using PSS/E rev 29 format.
%
%   WARNINGS:
%       Section label mismatch, found 'VSC DC LINE', expected 'VOLTAGE SOURCE CONVERTER'
%       Section label mismatch, found 'FACTS DEVICE', expected 'FACTS CONTROL DEVICE'
%       Using default voltage magnitude limits: VMIN = 0.9 p.u., VMAX = 1.1 p.u.
%
%   See CASEFORMAT for details on the MATPOWER case file format.

%% MATPOWER Case Format : Version 2
mpc.version = '2';

%%-----  Power Flow Data  -----%%
%% system MVA base
mpc.baseMVA = 100;

%% bus data
%	bus_i	type	Pd	Qd	Gs	Bs	area	Vm	Va	baseKV	zone	Vmax	Vmin
mpc.bus = [
	101	2	0	0	0	0	1	1	-21.6109	15	1	1.1	0.9;
	102	1	270	30	0	0	1	1.03505	-21.6109	330	1	1.1	0.9;
	201	2	0	0	0	0	2	1	5.8891	20	1	1.1	0.9;
	202	2	0	0	0	0	2	1	1.5272	20	1	1.1	0.9;
	203	2	0	0	0	0	2	1	1.1932	20	1	1.1	0.9;
	204	3	0	0	0	0	2	1	0	20	1	1.1	0.9;
	205	2	235	25	0	0	2	1.045	-10.7006	330	1	1.1	0.9;
	206	1	80	10	0	0	2	1.0157	-1.4416	330	1	1.1	0.9;
	207	1	1130	120	0	0	2	1.00308	-7.4573	330	1	1.1	0.9;
	208	1	125	15	0	0	2	1.00744	-7.0143	330	1	1.1	0.9;
	209	1	0	0	0	0	2	1.00944	-6.0141	330	1	1.1	0.9;
	210	1	0	0	0	0	2	1.04585	-8.2698	500	1	1.1	0.9;
	211	1	1060	110	0	0	2	1.01444	-12.533	330	1	1.1	0.9;
	212	1	1000	110	0	400	2	1.02324	-12.8034	330	1	1.1	0.9;
	213	1	0	0	0	0	2	1.04484	-10.6555	500	1	1.1	0.9;
	214	1	0	0	0	0	2	1.03741	-12.901	330	1	1.1	0.9;
	215	1	290	30	0	0	2	1.01499	-5.4176	330	1	1.1	0.9;
	216	1	1105	120	0	300	2	1.03448	-14.6753	330	1	1.1	0.9;
	217	1	750	80	0	0	2	1.03223	-17.4582	330	1	1.1	0.9;
	301	2	0	0	0	0	3	1	-6.3752	20	1	1.1	0.9;
	302	2	0	0	0	0	3	1	-15.3751	20	1	1.1	0.9;
	303	1	0	0	0	0	3	1.00488	-13.9924	500	1	1.1	0.9;
	304	1	0	0	0	0	3	1.00542	-22.8954	500	1	1.1	0.9;
	305	1	0	0	0	0	3	1.0163	-24.0067	500	1	1.1	0.9;
	306	1	900	90	0	0	3	1.0183	-25.5714	500	1	1.1	0.9;
	307	1	470	50	0	0	3	1.02074	-25.6044	500	1	1.1	0.9;
	308	1	620	100	0	0	3	1.0441	-32.9496	500	1	1.1	0.9;
	309	1	140	15	0	0	3	1.04184	-23.2471	330	1	1.1	0.9;
	310	1	0	0	0	0	3	1.00776	-24.165	330	1	1.1	0.9;
	311	1	0	0	0	0	3	1.03746	-23.6261	330	1	1.1	0.9;
	312	1	92	10	0	0	3	1.01132	-22.6716	220	1	1.1	0.9;
	313	2	1625	165	0	0	3	1.015	-28.3633	220	1	1.1	0.9;
	314	1	180	20	0	0	3	1.01615	-27.4327	220	1	1.1	0.9;
	315	1	0	0	0	0	3	1.04266	-34.3703	275	1	1.1	0.9;
	401	2	0	0	0	0	4	1	-13.1037	20	1	1.1	0.9;
	402	2	0	0	0	0	4	1	2.2181	20	1	1.1	0.9;
	403	2	0	0	0	0	4	1	1.9537	20	1	1.1	0.9;
	404	2	0	0	0	0	4	1	-4.726	20	1	1.1	0.9;
	405	1	730	75	0	0	4	1.00788	-11.03	275	1	1.1	0.9;
	406	1	540	55	0	0	4	0.99929	-6.1997	275	1	1.1	0.9;
	407	1	0	0	0	0	4	1.00106	-4.249	275	1	1.1	0.9;
	408	1	110	10	0	0	4	1.01207	-6.1851	275	1	1.1	0.9;
	409	1	190	20	0	60	4	1.03289	-21.2613	275	1	1.1	0.9;
	410	1	390	40	0	0	4	1.01319	-19.2319	275	1	1.1	0.9;
	411	1	420	45	0	30	4	1.00629	-25.8081	275	1	1.1	0.9;
	412	2	922	100	0	0	4	1	-25.9326	275	1	1.1	0.9;
	413	1	0	0	0	0	4	1.04649	-16.8203	275	1	1.1	0.9;
	414	1	0	0	0	-30	4	1.03316	-16.5543	330	1	1.1	0.9;
	415	1	0	0	0	-60	4	1.04457	-15.3269	330	1	1.1	0.9;
	416	1	0	0	0	-60	4	1.05436	-13.0593	330	1	1.1	0.9;
	501	2	0	0	0	0	5	1	-31.4249	20	1	1.1	0.9;
	502	2	0	0	0	0	5	1	-32.988	15	1	1.1	0.9;
	503	2	0	0	0	0	5	1	-32.4534	15	1	1.1	0.9;
	504	1	180	20	0	0	5	1.03667	-39.3425	275	1	1.1	0.9;
	505	1	0	0	0	0	5	1.00777	-39.5519	275	1	1.1	0.9;
	506	1	0	0	0	0	5	1.00901	-41.0027	275	1	1.1	0.9;
	507	2	640	65	0	0	5	1.01	-41.5366	275	1	1.1	0.9;
	508	1	490	50	0	0	5	1.00469	-41.6212	275	1	1.1	0.9;
	509	2	122	15	0	0	5	1.03	-36.9831	275	1	1.1	0.9;
];

%% generator data
%	bus	Pg	Qg	Qmax	Qmin	Vg	mBase	status	Pmax	Pmin	Pc1	Pc2	Qc1min	Qc1max	Qc2min	Qc2max	ramp_agc	ramp_10	ramp_30	ramp_q	apf
mpc.gen = [
	101	0	-194.719	290.564	-290.564	1	666.6	1	600	0	0	0	0	0	0	0	0	0	0	0	0;
	201	2160	-123.271	1162.432	-1162.432	1	2666.8	1	2400	0	0	0	0	0	0	0	0	0	0	0	0;
	202	1380	-7.371	726.54	-726.54	1	1666.8	1	1500	0	0	0	0	0	0	0	0	0	0	0	0;
	203	1410	28.229	726.54	-726.54	1	1666.8	1	1500	0	0	0	0	0	0	0	0	0	0	0	0;
	204	1597.149	-174.217	1162.432	-1162.432	1	2666.8	1	2400	0	0	0	0	0	0	0	0	0	0	0	0;
	205	0	-39.367	430	-220	1.045	650	1	0	0	0	0	0	0	0	0	0	0	0	0	0;
	301	3330	99.731	1743.648	-1743.648	1	4000.2	1	3600	0	0	0	0	0	0	0	0	0	0	0	0;
	302	760	-18.509	387.418	-387.418	1	888.8	1	800	0	0	0	0	0	0	0	0	0	0	0	0;
	313	0	86.68	600	-200	1.015	800	1	0	0	0	0	0	0	0	0	0	0	0	0	0;
	401	960	-65.659	581.127	-581.127	1	1333.2	1	1200	0	0	0	0	0	0	0	0	0	0	0	0;
	402	580	-4.706	290.564	-290.564	1	666.6	1	600	0	0	0	0	0	0	0	0	0	0	0	0;
	403	960	42.633	581.127	-581.127	1	1333.2	1	1200	0	0	0	0	0	0	0	0	0	0	0	0;
	404	651	-10.518	435.846	-435.846	1	999.9	1	900	0	0	0	0	0	0	0	0	0	0	0	0;
	412	0	-53.018	1100	-330	1	1430	1	0	0	0	0	0	0	0	0	0	0	0	0	0;
	501	560	-105.051	290.564	-290.564	1	666.6	1	600	0	0	0	0	0	0	0	0	0	0	0	0;
	502	540	-5.462	450	-450	1	750	1	600	0	0	0	0	0	0	0	0	0	0	0	0;
	503	150	2.203	72.663	-72.663	1	166.7	1	150	0	0	0	0	0	0	0	0	0	0	0	0;
	507	0	-4.023	320	-180	1.01	500	1	0	0	0	0	0	0	0	0	0	0	0	0	0;
	509	0	-109.263	400	-150	1.03	550	1	0	0	0	0	0	0	0	0	0	0	0	0	0;
];

%% branch data
%	fbus	tbus	r	x	b	rateA	rateB	rateC	ratio	angle	status	angmin	angmax
mpc.branch = [
	102	217	0.0084	0.0667	0.817	0	0	0	0	0	1	-360	360;
	102	217	0.0084	0.0667	0.817	0	0	0	0	0	1	-360	360;
	102	217	0.0078	0.062	0.76	0	0	0	0	0	1	-360	360;
	102	217	0.0078	0.062	0.76	0	0	0	0	0	1	-360	360;
	102	309	0.0045	0.0356	0.437	0	0	0	0	0	1	-360	360;
	102	309	0.0045	0.0356	0.437	0	0	0	0	0	1	-360	360;
	102	309	0.0109	0.0868	0.76	0	0	0	0	0	1	-360	360;
	205	206	0.0096	0.076	0.931	0	0	0	0	0	1	-360	360;
	205	206	0.0096	0.076	0.931	0	0	0	0	0	1	-360	360;
	205	416	0.0037	0.046	0.73	0	0	0	0	0	1	-360	360;
	205	416	0.0037	0.046	0.73	0	0	0	0	0	1	-360	360;
	206	207	0.0045	0.0356	0.437	0	0	0	0	0	1	-360	360;
	206	207	0.0045	0.0356	0.437	0	0	0	0	0	1	-360	360;
	206	212	0.0066	0.0527	0.646	0	0	0	0	0	1	-360	360;
	206	212	0.0066	0.0527	0.646	0	0	0	0	0	1	-360	360;
	206	215	0.0066	0.0527	0.646	0	0	0	0	0	1	-360	360;
	206	215	0.0066	0.0527	0.646	0	0	0	0	0	1	-360	360;
	207	208	0.0018	0.014	0.171	0	0	0	0	0	1	-360	360;
	207	208	0.0018	0.014	0.171	0	0	0	0	0	1	-360	360;
	207	209	0.0008	0.0062	0.076	0	0	0	0	0	1	-360	360;
	208	211	0.0031	0.0248	0.304	0	0	0	0	0	1	-360	360;
	208	211	0.0031	0.0248	0.304	0	0	0	0	0	1	-360	360;
	208	211	0.0031	0.0248	0.304	0	0	0	0	0	1	-360	360;
	209	212	0.0045	0.0356	0.437	0	0	0	0	0	1	-360	360;
	210	213	0.001	0.0145	1.54	0	0	0	0	0	1	-360	360;
	210	213	0.001	0.0145	1.54	0	0	0	0	0	1	-360	360;
	211	212	0.0014	0.0108	0.133	0	0	0	0	0	1	-360	360;
	211	212	0.0014	0.0108	0.133	0	0	0	0	0	1	-360	360;
	211	214	0.0019	0.0155	0.19	0	0	0	0	0	1	-360	360;
	212	217	0.007	0.0558	0.684	0	0	0	0	0	1	-360	360;
	214	216	0.001	0.0077	0.095	0	0	0	0	0	1	-360	360;
	214	217	0.0049	0.0388	0.475	0	0	0	0	0	1	-360	360;
	215	216	0.0051	0.0403	0.494	0	0	0	0	0	1	-360	360;
	215	216	0.0051	0.0403	0.494	0	0	0	0	0	1	-360	360;
	215	217	0.0072	0.0574	0.703	0	0	0	0	0	1	-360	360;
	215	217	0.0072	0.0574	0.703	0	0	0	0	0	1	-360	360;
	216	217	0.0051	0.0403	0.494	0	0	0	0	0	1	-360	360;
	303	304	0.002	0.028	0.74	0	0	0	0	0	1	-360	360;
	303	304	0.002	0.028	0.74	0	0	0	0	0	1	-360	360;
	303	305	0.0011	0.016	1.7	0	0	0	0	0	1	-360	360;
	303	305	0.0011	0.016	1.7	0	0	0	0	0	1	-360	360;
	304	305	0.0003	0.004	0.424	0	0	0	0	0	1	-360	360;
	305	306	0.0002	0.003	0.32	0	0	0	0	0	1	-360	360;
	305	307	0.0003	0.0045	0.447	0	0	0	0	0	1	-360	360;
	305	307	0.0003	0.0045	0.447	0	0	0	0	0	1	-360	360;
	306	307	0.0001	0.0012	0.127	0	0	0	0	0	1	-360	360;
	307	308	0.0023	0.0325	3.445	0	0	0	0	0	1	-360	360;
	307	308	0.0023	0.0325	3.445	0	0	0	0	0	1	-360	360;
	309	310	0.0135	0.10695	0.58267	0	0	0	0	0	1	-360	360;
	309	310	0.0135	0.10695	0.58267	0	0	0	0	0	1	-360	360;
	309	310	0.0135	0.10695	0.58267	0	0	0	0	0	1	-360	360;
	310	311	0	-0.0337	0	0	0	0	0	0	1	-360	360;
	310	311	0	-0.0337	0	0	0	0	0	0	1	-360	360;
	312	313	0.006	0.045	0.3	0	0	0	0	0	1	-360	360;
	312	313	0.006	0.045	0.3	0	0	0	0	0	1	-360	360;
	312	313	0.006	0.045	0.3	0	0	0	0	0	1	-360	360;
	313	314	0.001	0.01	0.26	0	0	0	0	0	1	-360	360;
	313	314	0.001	0.01	0.26	0	0	0	0	0	1	-360	360;
	315	509	0.007	0.05	0.19	0	0	0	0	0	1	-360	360;
	315	509	0.007	0.05	0.19	0	0	0	0	0	1	-360	360;
	405	406	0.0039	0.0475	0.381	0	0	0	0	0	1	-360	360;
	405	406	0.0039	0.0475	0.381	0	0	0	0	0	1	-360	360;
	405	408	0.0054	0.05	0.189	0	0	0	0	0	1	-360	360;
	405	409	0.018	0.122	0.79	0	0	0	0	0	1	-360	360;
	405	409	0.018	0.122	0.79	0	0	0	0	0	1	-360	360;
	405	409	0.018	0.122	0.79	0	0	0	0	0	1	-360	360;
	406	407	0.0006	0.0076	0.062	0	0	0	0	0	1	-360	360;
	406	407	0.0006	0.0076	0.062	0	0	0	0	0	1	-360	360;
	407	408	0.0042	0.0513	0.412	0	0	0	0	0	1	-360	360;
	408	410	0.0165	0.192	0.67333	0	0	0	0	0	1	-360	360;
	408	410	0.0165	0.192	0.67333	0	0	0	0	0	1	-360	360;
	408	410	0.0165	0.192	0.67333	0	0	0	0	0	1	-360	360;
	409	411	0.0103	0.0709	0.46	0	0	0	0	0	1	-360	360;
	409	411	0.0103	0.0709	0.46	0	0	0	0	0	1	-360	360;
	410	411	0.0043	0.0532	0.427	0	0	0	0	0	1	-360	360;
	410	412	0.0043	0.0532	0.427	0	0	0	0	0	1	-360	360;
	410	412	0.0043	0.0532	0.427	0	0	0	0	0	1	-360	360;
	410	412	0.0043	0.0532	0.427	0	0	0	0	0	1	-360	360;
	410	412	0.0043	0.0532	0.427	0	0	0	0	0	1	-360	360;
	410	413	0.004	0.0494	0.4	0	0	0	0	0	1	-360	360;
	410	413	0.004	0.0494	0.4	0	0	0	0	0	1	-360	360;
	411	412	0.0012	0.0152	0.122	0	0	0	0	0	1	-360	360;
	411	412	0.0012	0.0152	0.122	0	0	0	0	0	1	-360	360;
	414	415	0.002	0.025	0.39	0	0	0	0	0	1	-360	360;
	414	415	0.002	0.025	0.39	0	0	0	0	0	1	-360	360;
	415	416	0.0037	0.046	0.73	0	0	0	0	0	1	-360	360;
	415	416	0.0037	0.046	0.73	0	0	0	0	0	1	-360	360;
	504	507	0.023	0.15	0.56	0	0	0	0	0	1	-360	360;
	504	507	0.023	0.15	0.56	0	0	0	0	0	1	-360	360;
	504	508	0.026	0.019	0.87	0	0	0	0	0	1	-360	360;
	504	508	0.026	0.019	0.87	0	0	0	0	0	1	-360	360;
	505	507	0.0016	0.017	0.03	0	0	0	0	0	1	-360	360;
	505	507	0.0016	0.017	0.03	0	0	0	0	0	1	-360	360;
	505	508	0.0025	0.028	0.17	0	0	0	0	0	1	-360	360;
	506	507	0.0016	0.017	0.03	0	0	0	0	0	1	-360	360;
	506	507	0.0016	0.017	0.03	0	0	0	0	0	1	-360	360;
	506	508	0.003	0.028	0.14	0	0	0	0	0	1	-360	360;
	507	508	0.002	0.019	0.09	0	0	0	0	0	1	-360	360;
	507	509	0.09	0.66	0.3	0	0	0	0	0	1	-360	360;
	507	509	0.09	0.66	0.3	0	0	0	0	0	1	-360	360;
	507	509	0.09	0.66	0.3	0	0	0	0	0	1	-360	360;
	507	509	0.09	0.66	0.3	0	0	0	0	0	1	-360	360;
	507	509	0.09	0.66	0.3	0	0	0	0	0	1	-360	360;
	507	509	0.09	0.66	0.3	0	0	0	0	0	1	-360	360;
	101	102	0	0.018	0	0	0	0	1	0	1	-360	360;
	201	206	0	0.006	0	0	0	0	1	0	1	-360	360;
	202	209	0	0.0096	0	0	0	0	1	0	1	-360	360;
	203	208	0	0.0102	0	0	0	0	1	0	1	-360	360;
	204	215	0	0.006	0	0	0	0	1	0	1	-360	360;
	209	210	0	0.0272	0	0	0	0	0.9756	0	1	-360	360;
	209	210	0	0.0272	0	0	0	0	0.9756	0	1	-360	360;
	209	210	0	0.0272	0	0	0	0	0.9756	0	1	-360	360;
	209	210	0	0.0272	0	0	0	0	0.9756	0	1	-360	360;
	213	214	0	0.0272	0	0	0	0	1	0	1	-360	360;
	213	214	0	0.0272	0	0	0	0	1	0	1	-360	360;
	213	214	0	0.0272	0	0	0	0	1	0	1	-360	360;
	213	214	0	0.0272	0	0	0	0	1	0	1	-360	360;
	301	303	0	0.004	0	0	0	0	1	0	1	-360	360;
	302	312	0	0.0169	0	0	0	0	1	0	1	-360	360;
	304	313	0	0.032	0	0	0	0	0.9615	0	1	-360	360;
	304	313	0	0.032	0	0	0	0	0.9615	0	1	-360	360;
	305	311	0	0.036	0	0	0	0	1	0	1	-360	360;
	305	311	0	0.036	0	0	0	0	1	0	1	-360	360;
	305	311	0	0.036	0	0	0	0	1	0	1	-360	360;
	305	314	0	0.024	0	0	0	0	1	0	1	-360	360;
	305	314	0	0.024	0	0	0	0	1	0	1	-360	360;
	308	315	0	0.027	0	0	0	0	1	0	1	-360	360;
	308	315	0	0.027	0	0	0	0	1	0	1	-360	360;
	401	410	0	0.01127	0	0	0	0	1	0	1	-360	360;
	402	408	0	0.0255	0	0	0	0	1	0	1	-360	360;
	403	407	0	0.01127	0	0	0	0	1	0	1	-360	360;
	404	405	0	0.017	0	0	0	0	1	0	1	-360	360;
	413	414	0	0.008	0	0	0	0	1.01502233	0	1	-360	360;
	413	414	0	0.008	0	0	0	0	1.01502233	0	1	-360	360;
	413	414	0	0.008	0	0	0	0	1.01502233	0	1	-360	360;
	501	504	0	0.0255	0	0	0	0	1	0	1	-360	360;
	502	505	0	0.02133	0	0	0	0	1	0	1	-360	360;
	503	506	0	0.1	0	0	0	0	1	0	1	-360	360;
];

%% bus names
mpc.bus_name = {
	'1_HPSGEN';
	'1_HPS330';
	'2_BPSGEN';
	'2_EPSGEN';
	'2_VPSGEN';
	'2_MPSGEN';
	'2_ASV330';
	'2_BPS330';
	'2_N__330';
	'2_VPS330';
	'2_EPS330';
	'2_EPS500';
	'2_SN_330';
	'2_SW_330';
	'2_K__500';
	'2_K__330';
	'2_MPS330';
	'2_SS_330';
	'2_YC_330';
	'3_LPSGEN';
	'3_YPSGEN';
	'3_LPS500';
	'3_R__500';
	'3_SM_500';
	'3_K__500';
	'3_M__500';
	'3_H__500';
	'3_D__330';
	'3_SS_330';
	'3_SM_330';
	'3_YPS220';
	'3_RSV220';
	'3_SM_220';
	'3_H__275';
	'4_TPSGEN';
	'4_CPSGEN';
	'4_SPSGEN';
	'4_GPSGEN';
	'4_GPS275';
	'4_N__275';
	'4_SPS275';
	'4_CPS275';
	'4_W__275';
	'4_TPS275';
	'4_SP_275';
	'4_BW_275';
	'4_BR_275';
	'4_BR_330';
	'4_BU_330';
	'4_DU_330';
	'5_NPSGEN';
	'5_TPSGEN';
	'5_PPSGEN';
	'5_D__275';
	'5_TPS275';
	'5_PPS275';
	'5_PSV275';
	'5_CG_275';
	'5_SSV275';
};
